/*--------------------------------*- C++ -*----------------------------------*\
| =========                 |                                                 |
| \\      /  F ield         | OpenFOAM: The Open Source CFD Toolbox           |
|  \\    /   O peration     | Version:  v2112                                 |
|   \\  /    A nd           | Website:  www.openfoam.com                      |
|    \\/     M anipulation  |                                                 |
\*---------------------------------------------------------------------------*/
FoamFile
{
    version     2.0;
    format      ascii;
    class       dictionary;
    location    "system";
    object      fvSolution;
}
// * * * * * * * * * * * * * * * * * * * * * * * * * * * * * * * * * * * * * //

solvers
{
    "alpha.water.*"
    {
        isoFaceTol      1e-6;
        surfCellTol     1e-6;
        nAlphaBounds    3;
        snapTol         1e-12;
        clip            true;
        reconstructionScheme plicRDF;
        writeFields     true;

        // nAlphaSubCycles 3;
        // cAlpha          1; // Note: cAlpha is not used by isoAdvector but must
                              // be specified because interfacePropertes object
                              // reads it during construction.

        // MULES
        nAlphaCorr      2;
        nAlphaSubCycles 3;
        cAlpha          1;

        MULESCorr       yes;
        nLimiterIter    3;

        solver          smoothSolver;
        smoother        symGaussSeidel;
        tolerance       1e-8;
        relTol          0;
    
    }

    "pcorr.*"
    {
        solver          PCG;
        preconditioner  DIC;
        tolerance       1e-10;
        relTol          0;
    }

    p_rgh
    {
        solver          GAMG;
        smoother        DICGaussSeidel;
        tolerance       1e-09;
        relTol          0.05;
    }

    p_rghFinal
    {
        $p_rgh;
        tolerance       1e-09;
        relTol          0;
    }

    U
    {
        solver          PBiCGStab;
        preconditioner  DILU;
        tolerance       1e-06;
        relTol          0;
    }
    
    UFinal
    {
        solver          PBiCGStab;
        preconditioner  DILU;
        tolerance       1e-06;
        relTol          0;
    }
}


PIMPLE
{
    momentumPredictor yes;
    nCorrectors     3;
    nOuterCorrectors 1;
    nNonOrthogonalCorrectors 0;
    pRefCell        0;
    pRefValue       0;
}


// ************************************************************************* //
